lehigh_doug/circuit_plusmg_2.dss
clear
set defaultbasefrequency=60
new object=circuit.lehigh basekv=115 pu=1.0001 phases=3 bus1=sourcebus angle=30 mvasc3=20000 mvasc1=21000
edit object=vsource.source basekv=115 bus1=sourcebus.1.2.3 pu=1.00 r1=0 x1=0.0001 r0=0 x0=0.0001
new object=vsource.secondsource basekv=4.16 bus1=680.1.2.3 pu=1.00 r1=0 x1=0.0001 r0=0 x0=0.0001
new object=transformer.sub phases=3 windings=2 xhl=0.008 buses=[sourcebus.1.2.3,650.1.2.3] conns=[delta,wye] kvs=[115,4.16] kvas=[5000,5000] %rs=[0.0005,0.0005]
new object=transformer.reg1 phases=1 bank=reg1 xhl=0.01 kvas=[1666,1666] buses=[650.1,rg60.1] kvs=[2.4,2.4] %loadloss=0.01
new object=regcontrol.reg1 transformer=reg1 winding=2 vreg=121 band=2 ptratio=20 ctprim=700 r=3 x=9
new object=transformer.reg2 phases=1 bank=reg1 xhl=0.01 kvas=[1666,1666] buses=[650.2,rg60.2] kvs=[2.4,2.4] %loadloss=0.01
new object=regcontrol.reg2 transformer=reg2 winding=2 vreg=121 band=2 ptratio=20 ctprim=700 r=3 x=9
new object=transformer.reg3 phases=1 bank=reg1 xhl=0.01 kvas=[1666,1666] buses=[650.3,rg60.3] kvs=[2.4,2.4] %loadloss=0.01
new object=regcontrol.reg3 transformer=reg3 winding=2 vreg=121 band=2 ptratio=20 ctprim=700 r=3 x=9
new object=transformer.xfm1 phases=3 windings=2 xhl=2 buses=[633.1.2.3,634.1.2.3] conns=[wye,wye] kvs=[4.16,0.480] kvas=[500,500] %rs=[0.55,0.55] xht=1 xlt=1
new object=linecode.mtx601 nphases=3 basefreq=60 rmatrix=[0.3465|0.1560,0.3375|0.1580,0.1535,0.3414] xmatrix=[1.0179|0.5017,1.0478|0.4236,0.3849,1.0348] units=mi
new object=linecode.mtx602 nphases=3 basefreq=60 rmatrix=[0.7526|0.1580,0.7475|0.1560,0.1535,0.7436] xmatrix=[1.1814|0.4236,1.1983|0.5017,0.3849,1.2112] units=mi
new object=linecode.mtx603 nphases=2 basefreq=60 rmatrix=[1.3238|0.2066,1.3294] xmatrix=[1.3569|0.4591,1.3471] units=mi
new object=linecode.mtx604 nphases=2 basefreq=60 rmatrix=[1.3238|0.2066,1.3294] xmatrix=[1.3569|0.4591,1.3471] units=mi
new object=linecode.mtx605 nphases=1 basefreq=60 rmatrix=[1.3292] xmatrix=[1.3475] units=mi
new object=linecode.mtx606 nphases=3 units=mi rmatrix=[0.791721|0.318476,0.781649|0.28345,0.318476,0.791721] xmatrix=[0.438352|0.0276838,0.396697|-0.0184204,0.0276838,0.438352] cmatrix=[383.948|0,383.948|0,0,383.948]
new object=linecode.mtx607 nphases=1 basefreq=60 rmatrix=[1.3425] xmatrix=[0.5124] cmatrix=[236] units=mi
new object=loadshape.solar_634_shape npts=8760 interval=1 useactual=yes mult=[0.0,0.0,0.0,0.0,0.0,0.0,0.0,0.0,7.63561656783703,23.15108459138854,32.679819387700064,100.42223755702656,23.02896714744981,53.815072611826906,80.50875446713546,86.67836601285931,43.30880256915709,2.871249169681267,0.0,0.0,0.0,0.0,0.0,0.0,0.0,0.0,0.0,0.0,0.0,0.0,0.0,0.0,20.03560053382982,50.88306256760052,71.22425455870139,2.809892600287663,152.8940182855275,54.67049041424647,198.52364798436884,136.5231324595564,72.07907666627247,6.169611545723835,0.0,0.0,0.0,0.0,0.0,0.0,0.0,0.0,0.0,0.0,0.0,0.0,0.0,0.0,58.762914023315,137.01219793015977,182.03064471445904,77.14903552169929,137.19507624864363,136.82812822197897,111.78392540211593,97.06251861159038,50.94441913699412,4.0316627345234055,0.0,0.0,0.0,0.0,0.0,0.0,0.0,0.0,0.0,0.0,0.0,0.0,0.0,0.0,89.42749773860183,204.8761378485765,290.8831557671971,344.5761109350852,365.0394203701249,355.38797243502614,312.62899621101747,239.63314517293188,130.59775580171,25.655385734405144,0.0,0.0,0.0,0.0,0.0,0.0,0.0,0.0,0.0,0.0,0.0,0.0,0.0,0.0,97.24599262492272,216.9711260521468,305.2989711004515,358.8084522550074,378.3555830130823,364.97806380073126,319.1649600885575,243.2984555756391,131.81952593594576,25.04479851471152,0.0,0.0,0.0,0.0,0.0,0.0,0.0,0.0,0.0,0.0,0.0,0.0,0.0,0.0,76.84403975927671,181.96988383991396,285.26337056662175,255.63708297223832,288.9894418438741,298.0910634338243,299.2514769986665,227.0496871936068,122.90137835932784,22.96761057805621,0.0,0.0,0.0,0.0,0.0,0.0,0.0,0.0,0.0,0.0,0.0,0.0,0.0,0.0,78.00445332411886,77.45462697897035,276.7723361963652,317.45472017856684,284.2858353202634,272.1914428115417,229.43246658753316,117.28159315875254,61.93915895541883,6.597320446933617,0.0,0.0,0.0,0.0,0.0,0.0,0.0,0.0,0.0,0.0,0.0,0.0,0.0,0.0,79.40969747168694,185.1461287720178,48.867231200338814,64.38269922389033,144.0979881528483,166.9428855921173,136.76736734743386,88.63343650557587,47.03487384640944,5.436311187242996,0.0,0.0,0.0,0.0,0.0,0.0,0.0,0.0,0.0,0.0,0.0,0.0,0.0,0.0,81.60840715743248,187.3454341526118,100.42223755702656,213.61140710671052,167.309833618782,78.12657076805758,100.1780026691491,83.80771253802651,43.430920013095815,20.52407030958473,0.0,0.0,0.0,0.0,0.0,0.0,0.0,0.0,0.0,0.0,0.0,0.0,0.0,0.0,37.811134812520486,93.45856477827677,150.5725954609947,258.08062324070977,149.77853422796875,195.591042245294,198.6457654283076,160.28480427063857,89.42749773860183,15.69834634203536,0.0,0.0,0.0,0.0,0.0,0.0,0.0,0.0,0.0,0.0,0.0,0.0,0.0,0.0,98.46776275915846,217.94866129850504,305.05473621257414,357.5259212462265,376.8282214215756,365.0388246752763,322.402561590055,250.99483301802127,148.9844729949428,36.71148212222347,0.0,0.0,0.0,0.0,0.0,0.0,0.0,0.0,0.0,0.0,0.0,0.0,0.0,0.0,90.95426363526016,206.58697345341565,289.9056205208388,351.53978371383505,373.0413892697781,364.7338289128538,323.19662282308093,244.70310402835872,145.50263660556791,36.16165577707496,0.0,0.0,0.0,0.0,0.0,0.0,0.0,0.0,0.0,0.0,0.0,0.0,0.0,0.0,88.99978883739206,204.2655506288829,287.6455542656996,265.34988747673066,294.54787047505584,267.8541886197472,241.7103331095872,192.84250621439992,114.41093968391976,27.671217101666848,0.0,0.0,0.0,0.0,0.0,0.0,0.0,0.0,0.0,0.0,0.0,0.0,0.0,0.0,37.07783445403965,87.83877957770142,159.18515158034154,202.9216630507084,232.48659407569824,213.36717221883316,126.19974073537044,102.74366038155932,57.96885279028904,9.467973921766404,0.0,0.0,0.0,0.0,0.0,0.0,0.0,0.0,0.0,0.0,0.0,0.0,0.0,0.0,19.54713075807492,52.47118503365244,243.7261644768489,303.8329660783384,350.9286007992929,348.11870819900525,310.979517175572,242.80939010503573,141.5323304404381,35.79530344525879,0.0,0.0,0.0,0.0,0.0,0.0,0.0,0.0,0.0,0.0,0.0,0.0,0.0,0.0,80.93646336834524,188.0781388162441,265.288530907337,224.3625077321063,263.7004084412852,343.3543408008495,207.5031521303804,94.80245235645124,53.08236794819455,9.590091365705128,0.0,0.0,0.0,0.0,0.0,0.0,0.0,0.0,0.0,0.0,0.0,0.0,0.0,0.0,83.68559509408779,201.27218401526287,293.81516581142347,358.07574759137503,371.6975016916036,362.1681712004436,321.608500357029,253.07202095467656,148.19041176191683,38.60519604554645,0.0,0.0,0.0,0.0,0.0,0.0,0.0,0.0,0.0,0.0,0.0,0.0,0.0,0.0,91.38197253646992,205.85367309493483,297.8462328510984,352.76095815322225,374.7516291797687,365.3444161325474,327.8996336518431,256.7367356625353,150.81683034887214,39.8269661797822,0.0,0.0,0.0,0.0,0.0,0.0,0.0,0.0,0.0,0.0,0.0,0.0,0.0,0.0,96.39057482250315,216.1157082497272,303.0996657198575,354.89890696442274,388.80109218120697,378.8440527888373,336.6962594793708,257.5307968955613,158.4524469167092,43.430920013095815,0.0,0.0,0.0,0.0,0.0,0.0,0.0,0.0,0.0,0.0,0.0,0.0,0.0,0.0,94.61957403796735,211.0457493943004,295.0976968202043,345.553050486595,364.4282374555828,353.4942585117031,315.13329735403414,248.49053187500468,150.5725954609947,40.49890996886943,0.0,0.0,0.0,0.0,0.0,0.0,0.0,0.0,0.0,0.0,0.0,0.0,0.0,0.0,24.372854725624283,61.02298027845415,92.42026865737336,52.77677649092348,153.0161357294662,40.80450142614048,42.57550221067625,0.6105872196936304,0.0,0.0,0.0,0.0,0.0,0.0,0.0,0.0,0.0,0.0,0.0,0.0,0.0,0.0,0.0,0.0,22.479140802301306,66.03217825933585,186.61213379413093,199.3177092173948,376.2783950764271,368.15430873283503,173.9679149402607,150.9389477928109,87.77801870315632,19.48577418868131,0.0,0.0,0.0,0.0,0.0,0.0,0.0,0.0,0.0,0.0,0.0,0.0,0.0,0.0,25.411150846527697,65.91006081539712,76.59980487139927,190.6437965286544,402.2393722681032,395.4591735026857,352.94443216655463,278.60469355029454,168.10389485180792,47.645461066103074,0.0,0.0,0.0,0.0,0.0,0.0,0.0,0.0,0.0,0.0,0.0,0.0,0.0,0.0,100.78918558369122,221.91896746363483,309.26927726558137,361.6183448552951,383.42554186850913,374.1404462652266,335.1075413184703,265.6548832391532,166.39305924696882,48.74511375640007,0.0,0.0,0.0,0.0,0.0,0.0,0.0,0.0,0.0,0.0,0.0,0.0,0.0,0.0,96.02422249068698,212.08404551520377,295.0363402508107,345.79788106932097,366.6275428361768,356.6097425692618,320.20325620946096,255.5149655282996,159.73497792549006,47.09563472095456,0.0,0.0,0.0,0.0,0.0,0.0,0.0,0.0,0.0,0.0,0.0,0.0,0.0,0.0,63.71075543480309,146.05186725586793,168.3481297396854,249.89518032772423,279.7657028099852,268.0984235076247,244.0925168086651,179.52634357144242,109.95156804818656,31.3972883789192,0.0,0.0,0.0,0.0,0.0,0.0,0.0,0.0,0.0,0.0,0.0,0.0,0.0,0.0,75.7443870689797,176.9606858590322,171.4630181023956,318.4930162994703,336.02371999543504,243.786925351394,33.84082864739068,237.00672658597657,140.0049688489313,39.39925727857241,0.0,0.0,0.0,0.0,0.0,0.0,0.0,0.0,0.0,0.0,0.0,0.0,0.0,0.0,21.4408446813979,34.51277243647792,52.04347613244265,80.44799359259035,63.527281421470754,44.102863802183045,44.71345102187668,17.347825377480884,8.918147576617894,0.1834740133323299,0.0,0.0,0.0,0.0,0.0,0.0,0.0,0.0,0.0,0.0,0.0,0.0,0.0,0.0,100.91130302762996,219.90313609637312,306.1537932080226,359.4803960440947,381.2262364879151,372.735797812507,337.2454901296708,271.0304335518511,166.8207681481786,52.83753736546861,0.0,0.0,0.0,0.0,0.0,0.0,0.0,0.0,0.0,0.0,0.0,0.0,0.0,0.0,95.84134417220312,211.9011671967199,296.5029409677724,347.3246469659793,368.5820176340449,361.0077576356015,325.08974105155545,208.66356569522247,138.84455528408915,52.47118503365244,0.0,0.0,0.0,0.0,0.0,0.0,0.0,0.0,0.0,0.0,0.0,0.0,0.0,0.0,29.93128335680601,91.80968143767971,156.31449810550873,158.20821202883175,203.53225027040207,192.23191899470623,173.54020603905093,124.85585315719598,76.59980487139927,21.99007533169792,0.0,0.0,0.0,0.0,0.0,0.0,0.0,0.0,0.0,0.0,0.0,0.0,0.0,0.0,100.84994645823636,221.67473257575736,314.1557621076758,368.03219128889634,390.7555669790751,383.9753682136577,344.8811066975078,277.99410633060086,173.11249713784113,57.78537877695671,0.0,0.0,0.0,0.0,0.0,0.0,0.0,0.0,0.0,0.0,0.0,0.0,0.0,0.0,101.21629879005252,215.8107124873046,299.3735944426052,350.8064833553542,371.7582625661487,366.0163599216347,331.4428266106117,268.281897520957,173.05173626329602,58.885031467253725,0.0,0.0,0.0,0.0,0.0,0.0,0.0,0.0,0.0,0.0,0.0,0.0,0.0,0.0,100.48359412642016,87.1668357886142,204.44902464221525,254.0489605061864,289.9056205208388,283.9802438629924,244.6423431538136,70.06384099385926,50.63882767972306,33.413119746180904,0.0,0.0,0.0,0.0,0.0,0.0,0.0,0.0,0.0,0.0,0.0,0.0,0.0,0.0,0.0,77.63810099230267,209.3355094843097,293.5703352286975,382.5093631915445,382.2037717342734,350.1958961356606,284.77430509601834,179.70981758477475,63.22228565904818,0.0,0.0,0.0,0.0,0.0,0.0,0.0,0.0,0.0,0.0,0.0,0.0,0.0,0.0,72.56814213687586,193.5144500034872,289.47791161962897,386.6631433700066,326.73922008700094,367.299486625264,360.5800487343916,280.0706985724077,108.24132813819593,52.65465904698476,0.0,0.0,0.0,0.0,0.0,0.0,0.0,0.0,0.0,0.0,0.0,0.0,0.0,0.0,53.38736371061712,70.85790222688522,53.38736371061712,80.44799359259035,53.2652462666784,222.4074372393897,202.55531071889223,147.02940250222622,51.06653658093285,7.024433653294918,0.0,0.0,0.0,0.0,0.0,0.0,0.0,0.0,0.0,0.0,0.0,0.0,0.0,0.0,3.970306165129802,25.655385734405144,40.13255763705324,143.60892268224492,172.86826224996372,80.50875446713546,116.60964936966528,50.822301693055394,30.84746203377069,58.09097023422776,0.0,0.0,0.0,0.0,0.0,0.0,0.0,0.0,0.0,0.0,0.0,0.0,0.0,0.0,25.289033402588974,24.067263268353223,93.33644733433805,182.82530164233347,167.67618595059815,209.76321838551948,229.2489925742008,276.4667447390941,178.73228233841647,64.13846433601287,0.0,0.0,0.0,0.0,0.0,0.0,0.0,0.0,0.0,0.0,0.0,0.0,0.0,0.0,20.279835421707272,51.494245482142624,96.32981394795804,358.7476913804624,134.6294185362334,133.89611817775258,151.9778396085628,114.34958311452615,2.809892600287663,59.61833182573456,0.0,0.0,0.0,0.0,0.0,0.0,0.0,0.0,0.0,0.0,0.0,0.0,0.0,0.0,32.43558449982262,144.15815333254494,311.5907000901141,371.9417365794811,392.6486852075496,390.7555669790751,355.08238097775507,289.05020271841926,187.10060356988583,70.55231076961415,0.0,0.0,0.0,0.0,0.0,0.0,0.0,0.0,0.0,0.0,0.0,0.0,0.0,10.323391724185964,118.93107219419808,237.37307891779272,325.2124541903426,376.7061039776368,398.2690661029734,389.9615057460492,354.53255463260655,289.78350307690005,193.5144500034872,74.15626460292778,0.0,0.0,0.0,0.0,0.0,0.0,0.0,0.0,0.0,0.0,0.0,0.0,0.0,10.506270042669817,114.65457887694872,228.7605227984459,311.28510863284305,361.6183448552951,383.1813069806316,377.378047766724,354.89890696442274,281.2317078320983,186.73425123806967,71.89619834778861,0.0,0.0,0.0,0.0,0.0,0.0,0.0,0.0,0.0,0.0,0.0,0.0,0.0,13.255401768412357,120.51919466024998,237.43443548718636,330.5266479336469,370.53708812676143,390.8163278536202,328.3273425530529,311.34586950738816,238.6562056214221,188.4444911480603,40.68178828735327,0.0,0.0,0.0,0.0,0.0,0.0,0.0,0.0,0.0,0.0,0.0,0.0,0.0,0.2442348878774521,66.94835693630054,153.25977492249515,216.6047737203305,246.5968179516817,291.0660340856809,308.04750713134564,204.8761378485765,180.1982873605297,127.72710232687722,43.30880256915709,0.0,0.0,0.0,0.0,0.0,0.0,0.0,0.0,0.0,0.0,0.0,0.0,0.0,2.932010044226389,107.87438011153128,216.29918226305952,303.0996657198575,355.99855965471977,377.9892306812661,372.18597146735846,339.3834389408712,274.3287959278936,175.55603740631264,67.86453561326522,0.0,0.0,0.0,0.0,0.0,0.0,0.0,0.0,0.0,0.0,0.0,0.0,0.0,0.0,16.06529436870002,22.78413656472388,72.26255067960481,101.0941813461138,107.81361923698611,130.53699492716487,83.13576874893928,72.14043323566607,76.7826831898831,28.526039209237933,0.0,0.0,0.0,0.0,0.0,0.0,0.0,0.0,0.0,0.0,0.0,0.0,0.0,0.0,1.771596479384251,78.79851455714481,140.18844286226363,181.481414064159,274.45150906668084,313.60593576252734,245.37504781744596,303.52737462106734,114.53305712785848,39.21578326524007,0.0,0.0,0.0,0.0,0.0,0.0,0.0,0.0,0.0,0.0,0.0,0.0,0.0,12.889049436596178,40.00984449826604,86.2506571116495,152.03860048310793,210.43516217460672,407.0037396662589,392.95487235966914,358.0143910219815,294.2422790177848,198.52364798436884,80.08164126077416,0.0,0.0,0.0,0.0,0.0,0.0,0.0,0.0,0.0,0.0,0.0,0.0,0.0,16.493003269909803,122.35214770902785,236.6403742541604,318.55377717401547,368.5820176340449,386.3575519127355,378.7219353448984,346.347111719621,284.5300702081409,192.23191899470623,77.94369244957373,0.0,0.0,0.0,0.0,0.0,0.0,0.0,0.0,0.0,0.0,0.0,0.0,0.0,15.026998247796604,46.54640407065454,194.73622013772288,235.35724755053104,364.0005285543729,383.1199504112381,376.33975164582057,343.5985756887269,282.0257690651243,190.82727054198668,74.09490803353417,0.0,0.0,0.0,0.0,0.0,0.0,0.0,0.0,0.0,0.0,0.0,0.0,0.0,6.658081321478739,24.739207057440463,121.74096479448572,114.53305712785848,158.14685545943814,217.09324349608545,177.0220424284258,225.8285127542195,111.29545562636102,34.69565075496177,0.0613565693936038,0.0,0.0,0.0,0.0,0.0,0.0,0.0,0.0,0.0,0.0,0.0,0.0,0.0,0.0,3.1762449321038413,1.5881224660519206,19.11942185686513,124.00103104962488,86.06777879316567,198.58440885891395,215.44376446063995,142.63138743588664,15.637585467490236,73.30084680050821,0.0,0.0,0.0,0.0,0.0,0.0,0.0,0.0,0.0,0.0,0.0,0.0,0.0,22.05143190109152,138.17201580015345,261.5624596300848,350.3787744541444,405.7212086574781,425.94028320464025,402.84995948779687,368.09354785829,303.0996657198575,208.05297847552885,87.96149271648865,0.0,0.0,0.0,0.0,0.0,0.0,0.0,0.0,0.0,0.0,0.0,0.0,0.0,23.33396290987239,135.484836338653,249.10111909469828,330.22105647637585,379.4552357033793,399.1238882105445,390.8163278536202,356.5483859998683,294.42575303111704,201.51701459798883,84.84600865892992,0.0,0.0,0.0,0.0,0.0,0.0,0.0,0.0,0.0,0.0,0.0,0.0,0.0,15.51546802355151,122.65714347145042,192.4153930080386,265.7775963779404,322.402561590055,322.58543990853883,322.7075573524775,193.453689128942,135.5455972131981,185.818072561105,81.42493314410014,0.0,0.0,0.0,0.0,0.0,0.0,0.0,0.0,0.0,0.0,0.0,0.0,0.0,8.857386702072771,75.43939130655713,169.5085433045275,202.3718367055599,246.5968179516817,240.67144129383527,296.9914107435273,220.7579582039442,111.47892963969336,34.8791247682941,34.57353331102304,0.0,0.0,0.0,0.0,0.0,0.0,0.0,0.0,0.0,0.0,0.0,0.0,0.0,18.935947843532805,92.84797755858314,125.10068373992188,207.2589172425029,287.8284325841834,283.8581264190537,261.19610729826854,226.13350851664208,218.6813659621374,126.93304109385129,29.4428135810511,0.0,0.0,0.0,0.0,0.0,0.0,0.0,0.0,0.0,0.0,0.0,0.0,0.0,10.079156836308517,55.89226054848221,147.33499395949727,152.03860048310793,190.2774441968382,231.5704153987336,268.8924847406507,237.37307891779272,210.2516881612744,152.4663093843177,47.34046530368049,0.0,0.0,0.0,0.0,0.0,0.0,0.0,0.0,0.0,0.0,0.0,0.0,0.0,27.243508200457068,137.684141719247,246.90240940895276,325.0903367464039,369.1926048537385,399.6129536811479,387.8843178093938,348.97412600142485,281.4145861505822,184.10783265111436,79.95892812198696,0.0,0.0,0.0,0.0,0.0,0.0,0.0,0.0,0.0,0.0,0.0,0.0,0.0,29.80916591286728,147.5178722779811,266.082592140363,351.6619011577738,404.0109687474875,424.16868672525607,415.8611263683318,341.0329179763167,313.11746598677246,198.76788287224628,95.41363527099334,0.0,0.0,0.0,0.0,0.0,0.0,0.0,0.0,0.0,0.0,0.0,0.0,0.0,29.01510467984132,134.87424911895937,230.16517125116548,352.2724883774674,399.1238882105445,416.1053612562092,404.1938470659713,360.5186921649981,280.4376465990724,186.73425123806967,80.264519579258,0.0,0.0,0.0,0.0,0.0,0.0,0.0,0.0,0.0,0.0,0.0,0.0,0.0,30.84746203377069,13.805228113560863,269.68654597367663,118.13701096117212,144.64721880314832,199.50118323072712,426.7343444376663,380.79912328155376,314.1563578025244,210.98498851975523,95.04728293917717,0.0,0.0,0.0,0.0,0.0,0.0,0.0,0.0,0.0,0.0,0.0,0.0,0.0,34.14582440981326,151.91648303916918,264.0059998985562,342.31604467994606,389.9615057460492,408.7753361456432,402.1172548241645,365.5278901458797,304.6270273113643,211.53481486490367,95.41363527099334,0.0,0.0,0.0,0.0,0.0,0.0,0.0,0.0,0.0,0.0,0.0,0.0,0.0,36.223012346468565,160.59039572790962,277.6277539987847,363.206467321347,414.39512134621856,434.06436954823215,424.1073301558624,386.84602168849045,310.55180827436226,217.3988349533565,99.56741544945548,5.069958855426818,0.0,0.0,0.0,0.0,0.0,0.0,0.0,0.0,0.0,0.0,0.0,0.0,36.65072124767835,156.68085043732495,272.25220368608683,352.2117275029222,398.2077095335798,400.7120106765964,392.4658068890657,356.5483859998683,291.8600953187069,203.7157242837344,91.7483248682861,3.481836389374897,0.0,0.0,0.0,0.0,0.0,0.0,0.0,0.0,0.0,0.0,0.0,0.0,36.03953833313624,140.86038665135086,266.75453592945024,348.240825642944,394.3595208123887,409.997106279879,404.4994385232424,350.5008918980831,288.5003763732707,199.68406154921095,89.54961518254058,3.11548405755872,0.0,0.0,0.0,0.0,0.0,0.0,0.0,0.0,0.0,0.0,0.0,0.0,37.811134812520486,154.72637563945682,265.34988747673066,346.53058573295334,393.93181191117895,414.8228302474284,407.73704002473977,372.18597146735846,309.7577470413363,209.27415291491607,95.41363527099334,5.4976677566366,0.0,0.0,0.0,0.0,0.0,0.0,0.0,0.0,0.0,0.0,0.0,0.0,34.3906549925392,132.9799395007879,265.288530907337,308.65869004588774,389.6559142887781,404.560795092636,394.9093471575372,358.99192626833974,293.75380924202983,150.450478017056,91.80968143767971,4.642249954217036,0.0,0.0,0.0,0.0,0.0,0.0,0.0,0.0,0.0,0.0,0.0,0.0,38.48307860160772,150.5112388916011,203.9599591716118,236.09054790901183,250.81195469953744,367.4823649437479,397.1694134126764,245.0694563601749,289.9056205208388,196.69129063043945,90.77138531677627,4.153780178462132,0.0,0.0,0.0,0.0,0.0,0.0,0.0,0.0,0.0,0.0,0.0,0.0,32.80193683163879,117.70930205996233,226.98892631906165,337.61243815633543,387.0908522712164,308.59733347649416,337.4289641430032,291.6158604308294,265.0442960194596,192.4153930080386,92.05391632555715,5.192076299365544,0.0,0.0,0.0,0.0,0.0,0.0,0.0,0.0,0.0,0.0,0.0,0.0,28.709513222570266,102.49942549368188,102.80442125610443,58.457322566043935,157.41415079580577,213.48928966277185,396.9859393993441,361.3741099674176,300.1676556756311,209.45762692824843,94.1918651367576,6.780198765417465,0.0,0.0,0.0,0.0,0.0,0.0,0.0,0.0,0.0,0.0,0.0,0.0,44.40845525945411,161.20098294760328,269.075958753983,260.89051584099747,392.7100417769432,407.1258571101977,400.9568412593224,367.05465604253806,305.66532343226777,214.52758578367525,98.04005385794866,8.001968899653209,0.0,0.0,0.0,0.0,0.0,0.0,0.0,0.0,0.0,0.0,0.0,0.0,46.3629300573222,160.83463061578706,263.7004084412852,336.0850765648287,389.8393883021104,408.103392356556,397.23017428722153,315.4388888113052,301.8171347110767,205.73155565099609,97.7958189700712,7.941208025108085,0.0,0.0,0.0,0.0,0.0,0.0,0.0,0.0,0.0,0.0,0.0,0.0,45.75234283762858,157.84185969701556,230.7763541657076,249.95653689711784,320.50884766673204,357.28168635834913,319.409194976435,310.6131648437558,265.0442960194596,130.23140346989385,62.42822442602222,3.11548405755872,0.0,0.0,0.0,0.0,0.0,0.0,0.0,0.0,0.0,0.0,0.0,0.0,6.352489864207683,26.51080353682471,41.90355842158901,78.98198857047714,42.3312673227988,28.09892600287663,96.39057482250315,133.53036154078487,10.139917710853636,75.56091305564736,35.856660014652384,0.0613565693936038,0.0,0.0,0.0,0.0,0.0,0.0,0.0,0.0,0.0,0.0,0.0,0.0,25.289033402588974,78.67639711320608,125.89474497294786,117.95353694783977,176.53297695782246,143.60892268224492,135.0571274374432,147.45711140343602,142.08156109073812,43.8586289143056,20.279835421707272,0.0,0.0,0.0,0.0,0.0,0.0,0.0,0.0,0.0,0.0,0.0,0.0,0.0,7.513499123898303,31.82499728012898,118.80835905541085,172.0742010169377,290.45544686598726,398.6348227399411,321.9134961194516,312.873231098895,292.5933956771877,127.72710232687722,61.32857173572521,3.6653104027072274,0.0,0.0,0.0,0.0,0.0,0.0,0.0,0.0,0.0,0.0,0.0,0.0,54.30413808243029,58.94638803664732,181.05370516294923,287.21784536448985,408.103392356556,424.8406305143432,420.38125887861,388.1291483921198,324.5405104012554,119.11395051268192,60.106801601489465,4.947841411488092,0.0,0.0,0.0,0.0,0.0,0.0,0.0,0.0,0.0,0.0,0.0,0.0,64.7490515557065,196.01934684135225,310.49104739981715,392.038097987856,436.9963795924586,452.32837360267774,444.570639590902,403.03343350112914,334.1306017669606,234.92953864932127,109.95156804818656,11.97227506478301,0.0,0.0,0.0,0.0,0.0,0.0,0.0,0.0,0.0,0.0,0.0,0.0,63.95499032268054,188.99431749320885,295.21981426414305,367.72659983162526,407.9205140380721,419.0987278698292,415.9832438122705,374.99586406764615,309.3300381401264,218.13153961698887,105.98126188305676,11.422448719634502,0.0,0.0,0.0,0.0,0.0,0.0,0.0,0.0,0.0,0.0,0.0,0.0,63.16092908965457,183.68012374990457,285.81319691177026,371.0255579025163,414.639356234096,229.1876360048072,424.7185130704045,385.3800166663772,321.9748526888452,221.36914111848637,108.48556302607338,13.621754100228534,0.0,0.0,0.0,0.0,0.0,0.0,0.0,0.0,0.0,0.0,0.0,0.0,62.24475041268989,180.4431179432556,283.9802438629924,357.3424472328942,191.9876841068288,326.8613375309397,332.8474750633312,250.3842457983276,159.9184519388224,124.42873995083464,61.38933261027033,5.8032592139076575,0.0,0.0,0.0,0.0,0.0,0.0,0.0,0.0,0.0,0.0,0.0,0.0,6.90231620935619,15.27123313567406,16.737238157787253,56.68632178150817,126.01686241688658,172.80690568057008,222.28531979545104,175.37256339298028,173.54020603905093,82.28035094651972,41.29297120189538,2.626418586955333,0.0,0.0,0.0,0.0,0.0,0.0,0.0,0.0,0.0,0.0,0.0,0.0,2.6877751563489367,11.545161858421707,43.24744599976348,67.13123525478439,69.51401464871074,74.2783820468665,51.06653658093285,57.66326133301798,49.66129243336477,27.121390756518345,12.522101409931516,0.0,0.0,0.0,0.0,0.0,0.0,0.0,0.0,0.0,0.0,0.0,0.0,0.0,1.1604135648421383,1.0996526902970165,19.36365674474259,32.61905851315495,57.84673534635031,41.53720608977284,49.60053155881965,29.80916591286728,60.84010195997029,50.39459279184561,24.372854725624283,0.6105872196936304,0.0,0.0,0.0,0.0,0.0,0.0,0.0,0.0,0.0,0.0,0.0,0.0,66.15429570327457,180.5032831229522,277.93334545605575,346.22499427568226,217.39823925850808,188.2002562601829,252.21660315225705,198.15729565255268,313.60593576252734,103.29348672670784,106.5918491027504,14.29369788931577,0.0,0.0,0.0,0.0,0.0,0.0,0.0,0.0,0.0,0.0,0.0,0.0,18.38612149838429,90.28231984617292,181.481414064159,208.05297847552885,181.6035315080977,198.09593908315904,232.8529464075144,199.86753556254328,268.0376626330796,153.4432489358275,78.67639711320608,10.933978943879596,0.0,0.0,0.0,0.0,0.0,0.0,0.0,0.0,0.0,0.0,0.0,0.0,73.30084680050821,191.3770968871352,261.745933643417,306.82573699710986,358.56421736713,375.2400989555236,360.27445727712063,327.838872777298,267.6099537318698,157.59702911428963,80.264519579258,11.728040176905555,0.0,0.0,0.0,0.0,0.0,0.0,0.0,0.0,0.0,0.0,0.0,0.0,70.91866310143034,164.3772278797071,207.56391300492547,233.5248901966017,244.94733891623616,272.4356776994192,329.1827603554724,279.6435853660464,161.5065744048743,89.1826671558759,44.2857421206669,4.70360652361064,0.0,0.0,0.0,0.0,0.0,0.0,0.0,0.0,0.0,0.0,0.0,0.0,35.001242212232825,85.15160011620098,134.75153598017215,361.8018188686274,399.85718856902537,417.4492488343837,406.0268001147491,372.6744412431135,310.18545594254607,213.7335245506493,51.127297455477965,15.026998247796604,0.0,0.0,0.0,0.0,0.0,0.0,0.0,0.0,0.0,0.0,0.0,0.0,73.60643825777926,183.8022411938433,170.3639611069471,237.67867037506383,304.9933796431805,399.24600565448327,386.4796693566743,352.3946058214061,294.36439646172346,209.3355094843097,60.96221940390902,8.735269258134046,0.0,0.0,0.0,0.0,0.0,0.0,0.0,0.0,0.0,0.0,0.0,0.0,12.522101409931516,63.58863799086436,111.05122073848356,121.00766443600487,178.2432168678131,257.1644445637451,281.84229505179195,273.5960912642613,310.18545594254607,145.93034550677768,47.462582747619216,6.2303724202689565,0.0,0.0,0.0,0.0,0.0,0.0,0.0,0.0,0.0,0.0,0.0,0.0,82.40246839045844,206.40349944008327,310.91875630102686,383.6084201869929,425.6346917473692,441.882864434553,430.2769417015863,392.038097987856,327.7775162079044,233.5248901966017,116.24329703784912,17.347825377480884,0.0,0.0,0.0,0.0,0.0,0.0,0.0,0.0,0.0,0.0,0.0,0.8554178024195642,84.1740648698427,200.72295336496288,301.57289982319924,361.9239363125661,403.9496121780938,419.58719764558407,423.7409778240463,372.3694454806908,310.1246950680009,221.12490623060887,112.63934320453548,17.959008292022993,0.0,0.0,0.0,0.0,0.0,0.0,0.0,0.0,0.0,0.0,0.0,3.11548405755872,88.14437103497248,206.8312083412931,305.8487974456001,374.9345074982526,412.745642310773,424.2908041691948,414.1508864583411,379.6994705912568,319.5313124203737,229.00475768632336,117.64794549056872,19.11942185686513,0.0,0.0,0.0,0.0,0.0,0.0,0.0,0.0,0.0,0.0,0.0,2.2600662551391557,76.04997852625075,146.78576330919725,221.55261513181864,249.10111909469828,309.879864485275,266.1439487097566,349.340478333241,189.60550040775087,198.21805652709776,216.48206058154332,106.10337932699548,17.287064502935763,0.0,0.0,0.0,0.0,0.0,0.0,0.0,0.0,0.0,0.0,0.0,0.0,70.36883675628182,108.6076804700121,101.03342047156866,111.6618079581772,177.32703819084836,231.26482394146248,137.80566346833726,129.19310734899042,132.73570461291044,82.40246839045844,24.98344194531791,10.201274280247238,0.0,0.0,0.0,0.0,0.0,0.0,0.0,0.0,0.0,0.0,0.0,0.0,28.22104344681536,84.35694318832654,79.95892812198696,381.40971050124745,433.8201346603548,452.8168433784327,429.78847192583135,394.6651122696598,330.8930002654631,236.5790176847668,116.97600170148148,19.18018273141025,0.0,0.0,0.0,0.0,0.0,0.0,0.0,0.0,0.0,0.0,0.0,6.90231620935619,97.30734919431632,224.23979459331912,335.29101533180267,410.6076934995726,455.0161487590268,468.88213774713273,453.8557351941846,411.3409938580534,333.7028928657508,176.47221608327732,96.51328796129036,20.64618775352345,0.0,0.0,0.0,0.0,0.0,0.0,0.0,0.0,0.0,0.0,0.0,7.207907666627247,97.6123449567389,220.39160587212805,323.80721004277456,393.8096944672402,434.9191916558033,448.1138325496705,434.4920784494419,395.70340839056325,329.9154650191048,229.7988189193493,119.35878109540783,21.19601409867196,0.0,0.0,0.0,0.0,0.0,0.0,0.0,0.0,0.0,0.0,0.0,8.490438675408113,100.36147668248144,221.49125856242503,318.0045465237154,383.7918942003253,420.87032434921343,432.1092990555156,418.54890152468073,382.14241516487976,321.608500357029,231.08134992813012,119.54165941389168,20.64618775352345,0.0,0.0,0.0,0.0,0.0,0.0,0.0,0.0,0.0,0.0,0.0,9.101621589950224,98.5285236337036,218.19289618638248,317.2712461652345,384.2196031015351,369.742431198887,438.8900935157816,426.85646188160496,390.7555669790751,327.838872777298,228.9434011169297,118.74759818086574,20.891018336249385,0.0,0.0,0.0,0.0,0.0,0.0,0.0,0.0,0.0,0.0,0.0,9.651447935098734,95.41363527099334,210.3738056052131,215.56588190457867,193.453689128942,217.643069841234,97.85657984461636,305.2989711004515,380.920645030644,314.2171186770695,222.95726358453825,111.96739941544828,21.25737066806556,0.0,0.0,0.0,0.0,0.0,0.0,0.0,0.0,0.0,0.0,0.0,9.345856477827676,92.60374267070569,133.5297658459364,238.59484905202845,368.94836996586105,317.2712461652345,424.35216073858834,411.1575198447212,377.8665175424789,318.92072520068007,230.714997596314,117.70930205996233,21.562962125336615,0.0,0.0,0.0,0.0,0.0,0.0,0.0,0.0,0.0,0.0,0.0,10.873218069334474,94.2532217061512,202.7381890373761,241.46609822170973,293.6930483674847,128.94887246111296,277.5669931242396,351.1120748126253,294.120161573846,171.15802233997303,111.05122073848356,51.92135868850392,19.85212652049749,0.0,0.0,0.0,0.0,0.0,0.0,0.0,0.0,0.0,0.0,0.0,9.101621589950224,16.003937799306417,64.32193834934519,83.68559509408779,103.47636504519168,196.8741689489233,291.79933444416173,173.17325801238627,162.97257942698752,98.40640618976484,82.28035094651972,49.60053155881965,21.562962125336615,0.0,0.0,0.0,0.0,0.0,0.0,0.0,0.0,0.0,0.0,0.0,5.864020088452778,33.65735463405835,216.1157082497272,229.85957979389443,273.5347346948677,290.271972852655,273.7795652775936,308.1088637007392,275.1842137303132,257.5921534649549,178.3659300066003,114.9601703342198,23.395319479265996,0.0,0.0,0.0,0.0,0.0,0.0,0.0,0.0,0.0,0.0,0.0,0.6105872196936304,5.680546075120448,23.089728021994937,35.61182943192645,36.8949561355558,58.885031467253725,72.69025958081458,169.509138999376,149.35082532675898,113.189169549684,73.2400859259631,20.951779210794506,0.0,0.0,0.0,0.0,0.0,0.0,0.0,0.0,0.0,0.0,0.0,0.0,14.782167665070672,108.05785412486358,226.07274764209697,314.88906246615664,376.9503388655143,414.0287690144023,425.6954526219144,413.3568252253152,380.2492969364053,319.28707753249626,232.1196460490336,123.02349580326658,23.823028380475773,0.0,0.0,0.0,0.0,0.0,0.0,0.0,0.0,0.0,0.0,0.0,16.06529436870002,108.1192106942572,219.2311923072859,308.4752160325554,370.7199664452452,337.8566730442129,422.4584468152654,406.39315244656535,372.8579152564458,311.5907000901141,70.00248442446565,121.19113844933722,24.79996793198558,0.0,0.0,0.0,0.0,0.0,0.0,0.0,0.0,0.0,0.0,0.0,16.493003269909803,111.72256883272236,232.97506385145317,331.9312963863665,400.4070149141738,439.928389636685,451.16796003783566,386.4796693566743,305.9709148895388,337.55108158694185,241.4655025268613,104.51525686094357,24.861324501379183,0.0,0.0,0.0,0.0,0.0,0.0,0.0,0.0,0.0,0.0,0.0,17.347825377480884,112.63934320453548,232.6694723941821,330.7708828215244,399.0017707666057,439.19508927820414,450.9844860245033,439.3172067221428,401.2618370217448,336.4514288966448,243.1149815623068,77.45462697897035,25.34979427713409,0.0,0.0,0.0,0.0,0.0,0.0,0.0,0.0,0.0,0.0,0.0,18.081125735961724,113.06705210574528,224.48462517604503,324.7233887197392,391.4275107681624,429.9713502443152,441.0888032015271,428.750175804928,390.2057406339266,220.51372331606677,230.47076270843652,121.86308223842444,27.121390756518345,0.0,0.0,0.0,0.0,0.0,0.0,0.0,0.0,0.0,0.0,0.0,19.05806528747153,113.79975676937764,225.2173298396774,314.82770589676306,376.4005125203658,411.4631113019921,421.3587941249684,367.2381300558704,377.5615217800564,316.04947603099885,231.20346737206893,125.77262752900911,27.73197797621197,0.0,0.0,0.0,0.0,0.0,0.0,0.0,0.0,0.0,0.0,0.0,19.48577418868131,116.30405791239426,227.721630982694,325.0289801770103,389.350322831507,425.57333517797554,438.4623846145718,426.6729878682726,297.4798805192822,329.97682158849847,238.71696649596723,125.5891535156768,27.182747325911944,0.0,0.0,0.0,0.0,0.0,0.0,0.0,0.0,0.0,0.0,0.0,10.262035154792365,42.94245023734091,138.66108127075682,237.12884402991529,298.5181766401856,318.61513374340905,335.29101533180267,399.9179494435704,364.1840025677053,305.11549708711925,221.67473257575736,118.44200672359467,26.51080353682471,0.0,0.0,0.0,0.0,0.0,0.0,0.0,0.0,0.0,0.0,0.0,19.85212652049749,77.2103920910929,167.37059449332708,228.88264024238464,217.15400437063056,375.7899253006721,192.47615388258373,364.5503548995215,235.60148243840848,216.48206058154332,126.38321474870276,65.84870424600352,21.19601409867196,0.0,0.0,0.0,0.0,0.0,0.0,0.0,0.0,0.0,0.0,0.0,5.925376657846382,38.11672626979154,181.6035315080977,134.26306620441724,261.6845770740234,304.26007928469966,310.24681251193965,149.16735131342662,146.35745871313898,146.60228929586492,105.91990531366316,60.29027561482179,17.959008292022993,0.0,0.0,0.0,0.0,0.0,0.0,0.0,0.0,0.0,0.0,0.0,21.135253224126835,55.8309039790886,161.0788655036645,223.56785080423185,148.0069377485845,336.8183769233096,356.97609490107806,276.1617489766715,242.5651552171583,159.24650814973515,111.53969051423849,57.17479155726308,18.935947843532805,0.0,0.0,0.0,0.0,0.0,0.0,0.0,0.0,0.0,0.0,0.0,0.6105872196936304,56.869200099992014,13.499636656289807,20.768900892310658,79.7760498035031,161.01750893427092,207.74738701825777,164.25570613061683,147.76270286070704,168.10389485180792,136.33965844622406,77.3325095350316,22.23490591442385,0.0,0.0,0.0,0.0,0.0,0.0,0.0,0.0,0.0,0.0,0.0,0.0,68.35300538902013,72.26255067960481,69.2691840659848,272.4356776994192,229.85957979389443,134.93500999350448,172.01284444754413,112.33375174726444,98.28428874582612,91.99255975616356,23.395319479265996,12.827692867202572,0.0,0.0,0.0,0.0,0.0,0.0,0.0,0.0,0.0,0.0,0.0,6.047494101785108,18.569595511716624,45.93522115611242,172.68538393147983,390.9998018669525,423.3132689228364,435.4076614315582,373.9575679467428,391.85521966937216,330.8930002654631,235.7849564517408,128.88751589171935,29.25933956771877,0.0,0.0,0.0,0.0,0.0,0.0,0.0,0.0,0.0,0.0,0.0,23.70091093653705,123.32908726053763,232.97506385145317,317.57683762250565,376.4005125203658,409.8136322665466,418.426784080742,404.6215559671811,369.8645486428257,311.1016346195107,227.96646156542,124.36738338144104,27.73197797621197,0.0,0.0,0.0,0.0,0.0,0.0,0.0,0.0,0.0,0.0,0.0,23.578197797749844,121.92384311296958,229.7988189193493,312.26264387920133,367.9714304143512,399.9179494435704,408.5311012577658,397.7800006323701,366.0163599216347,309.9412210546686,228.51569221572,125.83338840355424,28.709513222570266,0.0,0.0,0.0,0.0,0.0,0.0,0.0,0.0,0.0,0.0,0.0,25.227676833195364,123.02349580326658,232.1196460490336,316.59930237614736,375.17874238613,407.9199183432236,416.6551876013577,422.2749728019331,371.63614512221,315.866597712515,233.5248901966017,128.70463757323552,29.80916591286728,0.0,0.0,0.0,0.0,0.0,0.0,0.0,0.0,0.0,0.0,0.0,25.716146608950268,122.35155201417936,229.0655185608685,311.1016346195107,369.8037877682806,401.3839544656837,409.6307539480628,370.2314966694904,364.611711468915,307.9867462568005,225.52292129694848,124.67297483871212,30.48110970195451,0.0,0.0,0.0,0.0,0.0,0.0,0.0,0.0,0.0,0.0,0.0,25.960977191676207,121.67960822509212,221.00278878667012,318.9814860752252,377.9278741118725,366.8717777240541,423.92445183737857,410.1192237238177,374.38468115310405,317.08777215190224,226.37774340451955,125.28356205840576,30.66398802043836,0.0,0.0,0.0,0.0,0.0,0.0,0.0,0.0,0.0,0.0,0.0,23.70091093653705,102.62154293762056,193.63716314227435,276.71157532182,198.76788287224628,213.55064623216543,367.72659983162526,362.1681712004436,332.3590052875763,245.43640438683957,223.07938102847692,109.7073331603091,31.335931809525597,0.0,0.0,0.0,0.0,0.0,0.0,0.0,0.0,0.0,0.0,0.0,28.770869791963868,108.85191535788957,179.9540524726522,246.4747005077429,254.0489605061864,308.5359769071005,344.02628458993667,326.4949851991235,260.3406894958489,150.87818691826575,109.34098082849292,78.31004478138992,22.601258246240032,0.0,0.0,0.0,0.0,0.0,0.0,0.0,0.0,0.0,0.0,0.0,6.780198765417465,78.31004478138992,145.19704514829684,194.49198524984544,276.34462729515536,292.34916078931025,327.5946378894206,387.0294957018227,350.4401310235381,295.7696406092916,216.23782569366588,118.50336329298828,32.74117595709367,0.0,0.0,0.0,0.0,0.0,0.0,0.0,0.0,0.0,0.0,0.0,21.74584044382047,68.35300538902013,142.08156109073812,204.02131574100545,189.360669825025,196.14146428529097,293.0211045783975,279.8264636845302,316.66065894554094,255.5149655282996,219.4146663206182,122.0459605569083,33.901589521935804,0.0,0.0,0.0,0.0,0.0,0.0,0.0,0.0,0.0,0.0,0.0,29.4428135810511,121.5574907811534,227.59951353875528,312.99534854283365,292.1656867759779,392.89292009542703,400.5291323581126,387.8235569348488,353.7998499689742,155.27620198460534,222.3460806699961,122.77926091538912,33.535237190119624,0.0,0.0,0.0,0.0,0.0,0.0,0.0,0.0,0.0,0.0,0.0,28.58739577863154,120.45843378570488,224.42326860665145,184.47418498293047,315.4996496858504,404.7436734111198,414.7614736780347,387.5793220469713,302.9775482759188,238.10637927627357,179.46558269689731,97.18523175037758,25.47191172107281,0.0,0.0,0.0,0.0,0.0,0.0,0.0,0.0,0.0,0.0,0.0,17.531299390813214,4.642249954217036,65.60446935812607,129.19310734899042,292.1656867759779,199.0127134549722,173.35673202571863,267.2436014000536,270.3590854576124,140.79903008195726,95.35227870159972,67.98665305720394,35.42895111344261,0.0,0.0,0.0,0.0,0.0,0.0,0.0,0.0,0.0,0.0,0.0,31.82499728012898,136.21813669713382,252.88854694134423,342.0712140972201,403.0947900705228,437.3013753548811,444.6319961602956,428.2611103343245,391.4882716427075,330.40453048970824,244.45886914048123,133.71323985926873,35.856660014652384,0.0,0.0,0.0,0.0,0.0,0.0,0.0,0.0,0.0,0.0,0.0,31.885758154674104,131.0254647029198,235.47936499446976,318.1874248421993,373.7740939334104,404.9271474244521,413.1733512119829,403.2776683890066,367.36024749980913,312.75111365495627,231.1427064975238,130.71987324564876,35.73454257071366,0.0,0.0,0.0,0.0,0.0,0.0,0.0,0.0,0.0,0.0,0.0,18.081125735961724,129.0096333356581,232.6694723941821,314.82770589676306,372.4302063552359,404.31656020475856,412.5627639922892,290.3940902965937,369.8645486428257,311.22375206344947,230.16517125116548,129.37658136232275,35.24547710011028,0.0,0.0,0.0,0.0,0.0,0.0,0.0,0.0,0.0,0.0,0.0,31.82499728012898,124.85585315719598,225.52292129694848,305.11549708711925,360.33581384651416,391.06115843634615,399.3073622238768,345.4309330426563,360.4579312904529,74.2170254774729,116.79312338299763,128.33768954657086,37.68901736858176,0.0,0.0,0.0,0.0,0.0,0.0,0.0,0.0,0.0,0.0,0.0,33.29100230224218,102.07171659247209,223.01862015393183,301.6336606977443,355.5708507535099,386.3575519127355,342.4989229984299,260.7683983970587,100.91130302762996,271.7023773409384,176.28874206994496,126.56668876203508,38.42172203221411,0.0,0.0,0.0,0.0,0.0,0.0,0.0,0.0,0.0,0.0,0.0,32.98541084497112,122.65714347145042,222.28531979545104,301.57289982319924,356.97609490107806,388.3733832799972,216.48206058154332,392.2215720011883,354.2883197447292,300.4732471329022,222.3466763648446,108.24132813819593,37.50554335524943,0.0,0.0,0.0,0.0,0.0,0.0,0.0,0.0,0.0,0.0,0.0,32.55770194376134,125.10068373992188,230.5315235829817,313.6672923319209,371.147675346455,404.0109687474875,413.1733512119829,403.03343350112914,369.13184397919343,311.8349349779916,224.3625077321063,128.88751589171935,37.811134812520486,0.0,0.0,0.0,0.0,0.0,0.0,0.0,0.0,0.0,0.0,0.0,32.924649970426,123.69543959235382,222.46879380878332,310.49104739981715,370.59784900130654,403.0947900705228,411.890820203202,400.1014234569028,365.9555990470895,299.67918589987625,221.49125856242503,127.72710232687722,38.11672626979154,0.0,0.0,0.0,0.0,0.0,0.0,0.0,0.0,0.0,0.0,0.0,20.52407030958473,119.60301598328527,202.7381890373761,271.88585135427064,354.3496763141227,357.22032978895544,326.9226941003333,360.6408096089368,305.543205988329,272.74067346184177,198.27941309649137,125.71127095961552,38.60519604554645,0.0,0.0,0.0,0.0,0.0,0.0,0.0,0.0,0.0,0.0,0.0,33.71871120345195,104.57601773548868,218.9256008500148,295.3419317080818,348.0579473244601,377.31728689217897,387.4572046030325,377.43940433611766,208.2972133634063,242.5651552171583,216.54341715093696,105.1872006500308,40.254675080991966,0.0,0.0,0.0,0.0,0.0,0.0,0.0,0.0,0.0,0.0,0.0,34.63488988041665,120.21360320297892,215.13876869821735,291.79933444416173,345.9199985132597,376.76686485218187,387.2123740203066,375.9733993140045,343.1708667875172,253.2548992731604,200.60024022617569,96.0855790600806,36.405890664952416,0.0,0.0,0.0,0.0,0.0,0.0,0.0,0.0,0.0,0.0,0.0,29.74780934347368,122.59638259690529,192.354036438645,250.8727155740825,314.9498233407018,271.4581424530609,282.941947742089,301.32806924047327,268.2205409515634,265.6548832391532,195.77451625862628,76.41633085806694,37.44478248070431,0.0,0.0,0.0,0.0,0.0,0.0,0.0,0.0,0.0,0.0,0.0,28.465278334692808,117.1594757148138,189.7883787262348,258.6918061552519,315.5610062552439,341.64410089085885,368.09354785829,343.72069313266564,314.5834710088856,303.95508352227705,227.2331612069391,132.36935228109428,37.56689992464303,0.0,0.0,0.0,0.0,0.0,0.0,0.0,0.0,0.0,0.0,0.0,31.275170934980476,95.90210504674825,190.03320930896072,257.4700360210162,299.80130334381494,327.1669289882108,351.84477947625754,329.6104692566822,325.0289801770103,266.9987708173277,176.1058637514611,117.5871846160236,38.23884371373027,0.0,0.0,0.0,0.0,0.0,0.0,0.0,0.0,0.0,0.0,0.0,31.335931809525597,118.13701096117212,170.3639611069471,251.85025082044083,284.5914267775345,245.00869548562977,130.1706425953487,236.63977855931188,296.93005417413366,238.7783230653608,186.73425123806967,116.85388425754276,38.78867005887878,0.0,0.0,0.0,0.0,0.0,0.0,0.0,0.0,0.0,0.0,0.0,32.37482362527749,115.14364434755213,203.4714893958569,255.45420465375443,313.9115272197984,327.4111638760882,354.89890696442274,319.714786433706,283.3083000739052,226.6225739872455,178.73228233841647,113.92187421331636,15.454111454157909,0.0,0.0,0.0,0.0,0.0,0.0,0.0,0.0,0.0,0.0,0.0,29.56493102498983,123.38984813508276,220.08661010970545,296.6858192862563,349.5239523465733,379.51599657792445,388.18990926666487,378.11134812520487,346.8969380647696,296.0752320665626,222.28531979545104,130.35352091383257,41.84279754704389,0.0,0.0,0.0,0.0,0.0,0.0,0.0,0.0,0.0,0.0,0.0,30.35899225801579,122.65714347145042,216.90976948275315,293.2653394662749,346.286350845076,375.6678078567334,183.13029740475605,208.7856831391612,259.1802759310068,292.77627399567154,217.15400437063056,127.91057634020956,38.8494309334239,0.0,0.0,0.0,0.0,0.0,0.0,0.0,0.0,0.0,0.0,0.0,35.55106855738133,67.07047438023925,212.14540208459735,287.0343713511575,339.9332652860197,287.1570844899447,267.976306063686,167.61482938120454,40.49890996886943,136.27889757167895,149.9614125464526,105.85914443911804,39.64349216644986,0.0,0.0,0.0,0.0,0.0,0.0,0.0,0.0,0.0,0.0,0.0,32.679819387700064,125.83338840355424,226.86680887512293,306.82573699710986,362.5958801016533,394.4816382563274,403.9496121780938,338.4672602639065,365.2836552580024,309.26927726558137,232.73082896357568,137.19507624864363,42.3312673227988,0.0,0.0,0.0,0.0,0.0,0.0,0.0,0.0,0.0,0.0,0.0,34.20718097920686,121.49672990660828,215.3216470167012,290.2112119781098,342.8652753302461,372.735797812507,383.1199504112381,374.6902726103751,344.698228379024,294.2422790177848,161.5679309742679,110.195802936064,43.8586289143056,0.0,0.0,0.0,0.0,0.0,0.0,0.0,0.0,0.0,0.0,0.0,33.413119746180904,123.0848523726602,139.45514250378278,294.85346193232687,191.68209264955777,380.9820016000377,384.95290346001593,293.75380924202983,347.0190555087082,295.28117083353663,223.9955597054416,133.22477008351382,43.24744599976348,0.0,0.0,0.0,0.0,0.0,0.0,0.0,0.0,0.0,0.0,0.0,33.413119746180904,121.80172566903084,216.66553459487568,293.2653394662749,342.804514455701,281.1095903881596,387.51796547757766,373.46850247613935,343.904167145998,293.81516581142347,220.81931477333785,132.0637608238232,44.469216133999225,0.0,0.0,0.0,0.0,0.0,0.0,0.0,0.0,0.0,0.0,0.0,34.51277243647792,87.1668357886142,214.46682490913017,288.19538061084813,339.5669129542035,369.8037877682806,378.8440527888373,367.4216040692027,337.9787904881517,212.69522842974587,150.75547377947856,125.5891535156768,40.80450142614048,0.0,0.0,0.0,0.0,0.0,0.0,0.0,0.0,0.0,0.0,0.0,34.51277243647792,119.96936831510148,212.08404551520377,287.7676717096384,340.8500396578329,202.55531071889223,270.4806072067026,59.374096937857104,326.8613375309397,292.4099216638554,227.7829875520876,135.60695378259172,42.02567586552775,0.0,0.0,0.0,0.0,0.0,0.0,0.0,0.0,0.0,0.0,0.0,33.77947207799708,120.45783809085638,216.05494737518205,291.9214518881005,345.85864194386613,260.5241635091813,391.06115843634615,310.18545594254607,147.33499395949727,15.69834634203536,24.005906698959624,22.17354934503025,13.0111668805349,0.0,0.0,0.0,0.0,0.0,0.0,0.0,0.0,0.0,0.0,0.0,33.77947207799708,120.5799555347951,213.36717221883316,289.8442639514452,343.72069313266564,322.58543990853883,167.67618595059815,250.8727155740825,349.0348868759699,294.42575303111704,222.77378957120592,114.9601703342198,46.79063895853199,0.0,0.0,0.0,0.0,0.0,0.0,0.0,0.0,0.0,0.0,0.0,19.24153930080386,117.95353694783977,209.6411009415808,231.5704153987336,340.4223307566231,239.2667928411157,150.63335633553984,227.47739609481656,290.5162077405324,192.354036438645,52.65465904698476,3.359718945436172,43.30880256915709,0.0,0.0,0.0,0.0,0.0,0.0,0.0,0.0,0.0,0.0,0.0,33.77947207799708,119.17530708207552,213.9169985639816,291.67721700022304,340.6052090751069,267.4878362879311,190.82727054198668,281.9036516211856,294.54787047505584,294.66998791899454,216.1157082497272,57.29690900120181,26.021738066221324,0.0,0.0,0.0,0.0,0.0,0.0,0.0,0.0,0.0,0.0,0.0,33.71871120345195,119.54165941389168,213.06158076156208,289.5392681890226,343.3543408008495,250.62848068620508,87.1668357886142,334.1306017669606,302.7333133880413,221.185667105154,26.20521207955365,45.93522115611242,33.229645732848574,0.0,0.0,0.0,0.0,0.0,0.0,0.0,0.0,0.0,0.0,0.0,20.82966176685578,75.37803473716352,62.916694201777126,68.47512283295885,113.92187421331636,162.11716162456796,313.60593576252734,275.1234528557681,83.31864706742311,15.881820355367688,70.98001967082394,51.494245482142624,31.03093604710302,0.0,0.0,0.0,0.0,0.0,0.0,0.0,0.0,0.0,0.0,0.0,32.863293401032394,119.35878109540783,213.48928966277185,291.43238641749707,339.5061520796584,304.56567074197073,382.75359807942186,371.0863187770615,340.8500396578329,291.67721700022304,226.3169825299744,136.5231324595564,44.77480759127029,0.4277089012097821,0.0,0.0,0.0,0.0,0.0,0.0,0.0,0.0,0.0,0.0,28.89298723590259,119.35878109540783,217.15400437063056,296.6858192862563,354.22696317533547,282.2700039530018,353.3721410677644,270.84755523336725,318.55377717401547,285.0185399838958,229.49322746207827,135.17924488138192,49.53917498942605,0.4277089012097821,0.0,0.0,0.0,0.0,0.0,0.0,0.0,0.0,0.0,0.0,26.877155868640887,118.5641241675334,211.4734582955101,266.6324184855115,339.7497912726874,327.9609902212367,314.2171186770695,351.4170705750478,241.7103331095872,252.40007716558927,226.2556259605808,137.6227851498534,44.71345102187668,0.4884697757549043,0.0,0.0,0.0,0.0,0.0,0.0,0.0,0.0,0.0,0.0,32.06923216800644,122.90137835932784,220.2694884281893,296.3802278289852,316.66065894554094,333.5194188524185,409.0195710335207,395.337056058747,364.7945897873989,313.60593576252734,231.814650286611,141.0432649698347,43.91938978885071,0.9161786769646866,0.0,0.0,0.0,0.0,0.0,0.0,0.0,0.0,0.0,0.0,28.09892600287663,99.26182399218442,178.9765172262939,259.79086315070043,305.7260843068129,332.7867141887861,351.5391880189866,374.6902726103751,343.41510167539457,294.91422280687203,224.6675034945289,136.70660647288872,45.32463393641879,0.3663523318161782,0.0,0.0,0.0,0.0,0.0,0.0,0.0,0.0,0.0,0.0,29.80916591286728,110.13504206151887,177.69398621751307,171.4636137972441,145.56339748011305,237.6173138056702,324.6012712758005,237.6173138056702,301.1451909219894,243.54269046351655,189.91049617017356,47.52334362216435,38.9107875028175,0.0,0.0,0.0,0.0,0.0,0.0,0.0,0.0,0.0,0.0,0.0,28.89298723590259,91.19849852313762,215.3830035860948,105.55355298184696,39.09366582130135,28.64875234802514,117.1594757148138,220.2694884281893,373.5906199200781,270.0534940003413,174.27350639753178,124.18390936810871,50.21111877851328,0.9775352463582904,0.0,0.0,0.0,0.0,0.0,0.0,0.0,0.0,0.0,0.0,0.0,27.48774308833452,110.07368549212528,168.8365995154403,304.6270273113643,353.9219674129129,405.4769737696007,337.55108158694185,297.78547197655325,163.4610492027424,203.10513706404072,105.30931809396952,45.141159923086455,0.4884697757549043,0.0,0.0,0.0,0.0,0.0,0.0,0.0,0.0,0.0,0.0,27.182747325911944,117.64794549056872,178.67092576902286,288.0732631669094,339.99462185541336,371.2697927903938,338.9563257345099,321.7913786755129,346.65270317689203,293.6930483674847,224.1176771493804,137.5614285804598,46.60716494519965,0.9161786769646866,0.0,0.0,0.0,0.0,0.0,0.0,0.0,0.0,0.0,0.0,31.580762392251533,116.48753192572656,210.80151450642288,287.2792019338834,342.3768055544912,376.4618690897593,386.60178680061296,227.6608701081489,353.9827282874581,299.5570684559375,217.27671750941775,140.12708629287002,46.66852151459326,1.4660050221131946,0.0,0.0,0.0,0.0,0.0,0.0,0.0,0.0,0.0,0.0,29.4428135810511,115.93770558057808,212.2675195285361,249.89518032772423,191.07150542986412,76.29421341412821,228.9946308738992,228.691422196022,228.68725233208264,192.7477907334913,76.04997852625075,109.34098082849292,47.09563472095456,1.4660050221131946,0.0,0.0,0.0,0.0,0.0,0.0,0.0,0.0,0.0,0.0,30.603227145893243,114.34958311452615,209.45762692824843,216.2253161018478,223.4409678015053,194.12384583348376,184.81968799504983,61.450689179663925,44.896925035209,138.35548981348578,178.30457343720667,98.1621713018874,33.10752828890985,0.0,0.0,0.0,0.0,0.0,0.0,0.0,0.0,0.0,0.0,0.0,26.26597295409878,114.53305712785848,210.31304473066805,219.35867100486095,225.76656048997745,81.30281570016143,72.8123770247533,69.57477552325587,129.37658136232275,168.10389485180792,179.4042261275037,136.58448902895,47.03487384640944,0.0,0.0,0.0,0.0,0.0,0.0,0.0,0.0,0.0,0.0,0.0,18.69171295565535,104.94237006730488,201.02794912738543,288.0119065975158,243.2370990062455,105.55355298184696,283.36965664329875,293.0211045783975,231.814650286611,237.92290526294124,115.082883473007,138.5997247013632,26.449446967431108,0.0,0.0,0.0,0.0,0.0,0.0,0.0,0.0,0.0,0.0,0.0,32.80193683163879,65.84870424600352,169.0200735287726,224.60674261998372,12.76633629780897,29.4428135810511,42.02567586552775,90.40443729011164,191.92632753743524,288.19538061084813,185.024011328079,6.352489864207683,47.58470019155794,0.0,0.0,0.0,0.0,0.0,0.0,0.0,0.0,0.0,0.0,0.0,28.58739577863154,113.189169549684,206.40349944008327,283.91948298844727,336.2071940087674,382.3258891782122,393.3819855660304,367.7879564010189,339.3226780663261,251.2390679058987,220.9414322172765,135.24060145077553,52.41042415910731,0.0,0.0,0.0,0.0,0.0,0.0,0.0,0.0,0.0,0.0,0.0,30.11475737013834,108.91267623243466,197.85170419528163,280.1934117111949,339.4447955102649,294.120161573846,321.05867401188056,378.7219353448984,346.286350845076,293.38745691021364,215.6879993485174,132.49146972503297,45.38539481096391,0.0,0.0,0.0,0.0,0.0,0.0,0.0,0.0,0.0,0.0,0.0,29.687048468928552,109.82945060424784,199.7448224237561,275.36768774364555,294.9755793762656,338.5899734026938,326.3728677551848,322.2190875767227,289.41715074508386,252.0331291389247,194.3698678059067,131.81952593594576,49.53917498942605,0.0,0.0,0.0,0.0,0.0,0.0,0.0,0.0,0.0,0.0,0.0,28.465278334692808,107.6915017930474,195.46952049620373,269.2588370724668,326.61710264306225,273.5960912642613,228.2714573278425,366.8104211546606,55.89226054848221,88.32784504830481,99.26182399218442,137.31778938743082,46.11869516944475,0.0,0.0,0.0,0.0,0.0,0.0,0.0,0.0,0.0,0.0,0.0,28.64875234802514,108.24132813819593,197.24111697558797,271.4581424530609,325.8230414100363,358.3199824792525,242.8707466744293,227.96646156542,340.8500396578329,288.9894418438741,220.81931477333785,137.4393111365211,52.34906758971371,0.3663523318161782,0.0,0.0,0.0,0.0,0.0,0.0,0.0,0.0,0.0,0.0,26.99927331257961,109.95156804818656,202.9216630507084,280.5597640430111,335.9021982463449,367.7879564010189,342.3768055544912,323.74644916822945,198.58440885891395,257.6529143395,205.1817293058476,129.4373422368679,51.24941489941669,0.3663523318161782,0.0,0.0,0.0,0.0,0.0,0.0,0.0,0.0,0.0,0.0,25.960977191676207,104.2096654036725,164.4385844491007,249.10111909469828,307.80327224346814,296.3802278289852,305.6045625577226,222.59091125272204,270.969672677306,228.2714573278425,199.3790657867884,129.25386822353553,17.83629515323579,0.0,0.0,0.0,0.0,0.0,0.0,0.0,0.0,0.0,0.0,0.0,6.597320446933617,35.001242212232825,98.1621713018874,113.67763932543892,232.36447663175952,324.11280150004563,302.4277219307703,300.7788385901732,273.47397382032256,209.9460967040033,145.93034550677768,111.29545562636102,42.81973709855371,0.0,0.0,0.0,0.0,0.0,0.0,0.0,0.0,0.0,0.0,0.0,26.755038424702164,68.35300538902013,105.85914443911804,183.2524148486948,278.29969778787193,280.4984074736175,261.92881196190086,326.73922008700094,322.7075573524775,241.58821566564848,191.9876841068288,99.26182399218442,35.24547710011028,0.0,0.0,0.0,0.0,0.0,0.0,0.0,0.0,0.0,0.0,0.0,22.845493134117483,104.45390029154996,192.048444981374,267.2436014000536,244.0311602392715,283.6138915311762,123.32908726053763,350.68436591141545,311.28510863284305,226.07274764209697,57.90809191574391,25.533268290466424,0.0,0.0,0.0,0.0,0.0,0.0,0.0,0.0,0.0,0.0,0.0,0.0,26.571564411369835,104.57601773548868,192.23191899470623,269.5644285297379,328.938525467595,202.4331932749535,330.7708828215244,334.0084843230218,212.9394633176233,266.02183126581787,173.4180885951122,115.87694470603292,33.29100230224218,0.0,0.0,0.0,0.0,0.0,0.0,0.0,0.0,0.0,0.0,0.0,24.98344194531791,106.04202275760188,199.9896530064821,245.680639274717,285.0185399838958,300.9617169086571,245.6192827053234,233.34141618326936,290.3940902965937,294.7313444883881,199.4398266613335,130.04852515141,50.88306256760052,0.3663523318161782,0.0,0.0,0.0,0.0,0.0,0.0,0.0,0.0,0.0,0.0,25.716146608950268,104.88160919275974,196.62993406104584,275.06209628637447,331.56494405455027,365.405772701941,332.4203618569699,374.0796853906815,344.51475436569166,296.74717585564986,225.8285127542195,137.74490259379215,46.729282389138376,0.0,0.0,0.0,0.0,0.0,0.0,0.0,0.0,0.0,0.0,0.0,25.289033402588974,104.45390029154996,171.82937043421177,237.12884402991529,220.9414322172765,90.89350276071504,60.106801601489465,148.0069377485845,291.00527321113583,213.2450547748944,175.4952765317675,136.82872391682744,37.62766079918816,0.0,0.0,0.0,0.0,0.0,0.0,0.0,0.0,0.0,0.0,0.0,21.74584044382047,73.60643825777926,200.1731270198144,113.86111333877125,269.93078086155407,268.34265839550216,63.16092908965457,91.87044231222484,175.31180251843517,170.18048709361477,135.79042779592405,75.6830304995861,14.782167665070672,0.0,0.0,0.0,0.0,0.0,0.0,0.0,0.0,0.0,0.0,0.0,11.17821383175705,77.82097931078653,28.22104344681536,75.7443870689797,90.89350276071504,172.4405533487539,180.13752648598455,199.9896530064821,211.35134085157145,213.67276367610413,26.877155868640887,67.62030072538776,42.08703243492135,0.0,0.0,0.0,0.0,0.0,0.0,0.0,0.0,0.0,0.0,0.0,8.185442912985538,61.87839808087372,93.39780390373166,155.886789204299,356.4876251253231,299.5570684559375,390.57209296574274,257.9585057967711,161.9342833060841,283.0646608808762,230.16517125116548,139.5164990731764,48.62299631246136,0.0,0.0,0.0,0.0,0.0,0.0,0.0,0.0,0.0,0.0,0.0,20.4633094350396,106.89744056002144,208.35797423795145,299.80130334381494,360.6408096089368,158.5745643606479,329.42699524334995,387.7622003654551,356.48702943047465,308.1696245752844,234.7466603308374,106.46973165881164,44.59133357793795,0.0,0.0,0.0,0.0,0.0,0.0,0.0,0.0,0.0,0.0,0.0,22.23490591442385,105.1872006500308,201.76124948586627,281.7815341772468,337.8566730442129,371.6975016916036,266.9987708173277,377.5001652106628,233.9525990978114,300.2897731195699,226.49986084845824,137.25643281803724,49.47841411488093,0.0,0.0,0.0,0.0,0.0,0.0,0.0,0.0,0.0,0.0,0.0,23.456080353811117,102.37730804974316,166.8207681481786,250.62848068620508,295.28117083353663,330.0375824630435,374.4460377224977,365.405772701941,168.16465572635306,219.7810186524344,222.52955468332848,134.9957708680496,43.06456768127964,0.0,0.0,0.0,0.0,0.0,0.0,0.0,0.0,0.0,0.0,0.0,22.601258246240032,100.666472444904,192.59886702137092,271.82449478487706,328.63293401032394,362.41240608832095,374.0796853906815,371.0255579025163,342.3768055544912,294.6092270444494,224.42326860665145,135.42347976925936,48.07316996731284,0.0,0.0,0.0,0.0,0.0,0.0,0.0,0.0,0.0,0.0,0.0,20.157717977768545,101.39977280338483,198.76788287224628,279.88782025392385,249.83441945317912,134.75153598017215,389.8393883021104,376.4618690897593,361.6183448552951,311.65146096465924,237.43443548718636,140.12708629287002,44.77480759127029,0.0,0.0,0.0,0.0,0.0,0.0,0.0,0.0,0.0,0.0,0.0,18.141886610506845,100.97206390217504,185.3903636598952,193.8200414607582,90.34367641556652,230.5315235829817,331.626300623944,300.350533994115,248.42917530561107,247.1466442968302,168.10389485180792,113.67763932543892,44.3470986900605,0.0,0.0,0.0,0.0,0.0,0.0,0.0,0.0,0.0,0.0,0.0,16.9201164762711,82.58594240379077,170.97454832664073,256.5538573440515,283.3083000739052,330.58740880819204,383.3641852991156,321.18079145581925,295.7696406092916,273.47397382032256,224.1176771493804,117.03735827087507,42.14779330946647,0.0,0.0,0.0,0.0,0.0,0.0,0.0,0.0,0.0,0.0,0.0,17.531299390813214,100.60571157035888,200.41676621284333,281.29246870664343,338.4064993893614,371.94114088463255,268.0376626330796,48.56163974306775,167.7983033945369,287.21784536448985,236.88460914203785,122.71790434599554,43.30880256915709,0.0,0.0,0.0,0.0,0.0,0.0,0.0,0.0,0.0,0.0,0.0,19.607891632620035,79.6539323595644,165.11052823818792,216.7268911642693,297.9689459898856,188.56660859199903,155.76467176036024,220.636436454854,244.70310402835872,208.35797423795145,138.4776072574245,62.55034186996095,25.34979427713409,0.0,0.0,0.0,0.0,0.0,0.0,0.0,0.0,0.0,0.0,0.0,9.651447935098734,68.53647940235246,75.2559172932248,79.34834090229333,228.2714573278425,194.73622013772288,199.07347432951732,299.1293595547277,281.5980601639145,268.4647758394409,158.33032947277047,66.15429570327457,43.18668512521837,0.0,0.0,0.0,0.0,0.0,0.0,0.0,0.0,0.0,0.0,0.0,18.203243179900447,98.46776275915846,144.83069281648065,144.5864579286032,342.31604467994606,280.13205514180135,278.23834121847835,380.2492969364053,349.0348868759699,301.08383435259583,159.5520996070062,101.33841623399124,14.049463001438316,0.0,0.0,0.0,0.0,0.0,0.0,0.0,0.0,0.0,0.0,0.0,17.83629515323579,98.5285236337036,194.9196941510552,275.7953966448554,333.15306652060224,366.3827122534509,378.2334655691436,369.62031375494826,136.5231324595564,299.1907161241213,222.46879380878332,132.9191786262428,43.12532855582475,0.0,0.0,0.0,0.0,0.0,0.0,0.0,0.0,0.0,0.0,0.0,16.493003269909803,97.49022751280016,195.10316816438757,275.2455702997068,331.74841806788265,365.2836552580024,289.6613856329613,385.86908213698064,340.8500396578329,293.93728325536216,223.62920737362543,132.73570461291044,37.13919102343325,0.0,0.0,0.0,0.0,0.0,0.0,0.0,0.0,0.0,0.0,0.0,15.393350579612786,76.84403975927671,194.61469838863263,275.91751408879406,334.2527192108993,367.36024749980913,379.0882876767147,370.4757315573679,341.64410089085885,217.5817132718404,221.7354934503025,129.74293369413894,42.45338476673752,0.0,0.0,0.0,0.0,0.0,0.0,0.0,0.0,0.0,0.0,0.0,9.22373903388895,51.67712380062648,166.51577238575598,156.68085043732495,240.42720640595783,298.8851246668503,127.42151086960618,116.91524082693635,150.63335633553984,258.446975572526,227.6608701081489,132.24723483715553,43.24744599976348,0.0,0.0,0.0,0.0,0.0,0.0,0.0,0.0,0.0,0.0,0.0,16.003937799306417,95.29151782705462,194.67486356832927,278.29969778787193,334.2527192108993,292.714917426278,385.86908213698064,266.02183126581787,204.14343318494417,239.63314517293188,223.5070899296868,130.35352091383257,37.994608825852815,0.0,0.0,0.0,0.0,0.0,0.0,0.0,0.0,0.0,0.0,0.0,16.126055243245144,95.230161257661,195.10316816438757,2
...